Version 4
SHEET 1 880 680
WIRE 192 160 128 160
WIRE 272 160 256 160
FLAG 128 224 0
FLAG 272 160 0
SYMBOL cap 112 160 R0
WINDOW 3 -61 24 Left 2
SYMATTR InstName C1
SYMATTR Value 240µ
SYMATTR SpiceLine2 IC=550
SYMBOL PTCEL13R501RBE 224 160 R0
WINDOW 3 32 -61 Center 2
SYMATTR InstName U1
TEXT 112 248 Left 2 !.tran 5
